14178991
  -OEChem-12072210483D

 59 62  0     1  0  0  0  0  0999 V2000
   -6.8191    0.0595    0.4004 S   0  0  0  0  0  0  0  0  0  0  0  0
    6.8517   -0.5291    0.2793 S   0  0  0  0  0  0  0  0  0  0  0  0
   -5.3217    0.5153   -0.0823 O   0  0  0  0  0  0  0  0  0  0  0  0
    5.8636    0.7660    0.1583 O   0  0  0  0  0  0  0  0  0  0  0  0
   -7.8102    0.9707   -0.5211 O   0  0  0  0  0  0  0  0  0  0  0  0
   -7.0078   -1.3247    0.0080 O   0  0  0  0  0  0  0  0  0  0  0  0
   -7.0053    0.4570    1.7835 O   0  0  0  0  0  0  0  0  0  0  0  0
    8.3353    0.0947    0.0135 O   0  0  0  0  0  0  0  0  0  0  0  0
    6.8086   -0.9820    1.6572 O   0  0  0  0  0  0  0  0  0  0  0  0
    6.5553   -1.4516   -0.8008 O   0  0  0  0  0  0  0  0  0  0  0  0
   -1.9540   -0.8638    0.1656 C   0  0  2  0  0  0  0  0  0  0  0  0
   -2.8546    0.3308   -0.1948 C   0  0  2  0  0  0  0  0  0  0  0  0
   -0.5245   -0.7188   -0.3646 C   0  0  1  0  0  0  0  0  0  0  0  0
    0.1095    0.5861    0.2003 C   0  0  1  0  0  0  0  0  0  0  0  0
    1.5767    0.8013   -0.3491 C   0  0  2  0  0  0  0  0  0  0  0  0
   -2.2693    1.5777    0.4802 C   0  0  0  0  0  0  0  0  0  0  0  0
   -0.8163    1.8238    0.0383 C   0  0  0  0  0  0  0  0  0  0  0  0
   -4.1832   -0.1652    0.4092 C   0  0  2  0  0  0  0  0  0  0  0  0
   -2.7781   -2.0764   -0.2584 C   0  0  0  0  0  0  0  0  0  0  0  0
   -4.2308   -1.6590    0.0342 C   0  0  0  0  0  0  0  0  0  0  0  0
    0.3273   -1.9347    0.0292 C   0  0  0  0  0  0  0  0  0  0  0  0
    2.3744   -0.5095   -0.3030 C   0  0  0  0  0  0  0  0  0  0  0  0
    2.2835    1.8603    0.5489 C   0  0  0  0  0  0  0  0  0  0  0  0
   -3.0138    0.5827   -1.7152 C   0  0  0  0  0  0  0  0  0  0  0  0
    1.7978   -1.7100   -0.1199 C   0  0  0  0  0  0  0  0  0  0  0  0
    1.5618    1.3001   -1.8141 C   0  0  0  0  0  0  0  0  0  0  0  0
    3.8735   -0.4107   -0.4676 C   0  0  0  0  0  0  0  0  0  0  0  0
    3.7889    1.9802    0.3159 C   0  0  0  0  0  0  0  0  0  0  0  0
    4.4806    0.6293    0.4688 C   0  0  2  0  0  0  0  0  0  0  0  0
   -1.8785   -0.9175    1.2650 H   0  0  0  0  0  0  0  0  0  0  0  0
   -0.5486   -0.6696   -1.4593 H   0  0  0  0  0  0  0  0  0  0  0  0
    0.1957    0.4297    1.2881 H   0  0  0  0  0  0  0  0  0  0  0  0
   -2.2876    1.4613    1.5715 H   0  0  0  0  0  0  0  0  0  0  0  0
   -2.8787    2.4610    0.2541 H   0  0  0  0  0  0  0  0  0  0  0  0
   -0.8275    2.1620   -1.0017 H   0  0  0  0  0  0  0  0  0  0  0  0
   -0.4215    2.6596    0.6269 H   0  0  0  0  0  0  0  0  0  0  0  0
   -4.1615   -0.0648    1.5025 H   0  0  0  0  0  0  0  0  0  0  0  0
   -2.5015   -2.9757    0.3013 H   0  0  0  0  0  0  0  0  0  0  0  0
   -2.6487   -2.2965   -1.3240 H   0  0  0  0  0  0  0  0  0  0  0  0
   -4.8313   -1.8565   -0.8597 H   0  0  0  0  0  0  0  0  0  0  0  0
   -4.6424   -2.2526    0.8579 H   0  0  0  0  0  0  0  0  0  0  0  0
    0.0374   -2.7906   -0.5922 H   0  0  0  0  0  0  0  0  0  0  0  0
    0.1349   -2.2205    1.0708 H   0  0  0  0  0  0  0  0  0  0  0  0
    2.1265    1.6081    1.6066 H   0  0  0  0  0  0  0  0  0  0  0  0
    1.8345    2.8493    0.3982 H   0  0  0  0  0  0  0  0  0  0  0  0
   -3.6443    1.4614   -1.8950 H   0  0  0  0  0  0  0  0  0  0  0  0
   -2.0599    0.7666   -2.2164 H   0  0  0  0  0  0  0  0  0  0  0  0
   -3.4844   -0.2602   -2.2311 H   0  0  0  0  0  0  0  0  0  0  0  0
    2.4156   -2.6037   -0.0756 H   0  0  0  0  0  0  0  0  0  0  0  0
    1.1418    2.3079   -1.8944 H   0  0  0  0  0  0  0  0  0  0  0  0
    2.5672    1.3555   -2.2448 H   0  0  0  0  0  0  0  0  0  0  0  0
    0.9774    0.6394   -2.4627 H   0  0  0  0  0  0  0  0  0  0  0  0
    4.2999   -1.3964   -0.2604 H   0  0  0  0  0  0  0  0  0  0  0  0
    4.1216   -0.1827   -1.5114 H   0  0  0  0  0  0  0  0  0  0  0  0
    3.9952    2.4004   -0.6761 H   0  0  0  0  0  0  0  0  0  0  0  0
    4.2198    2.6942    1.0285 H   0  0  0  0  0  0  0  0  0  0  0  0
    4.3876    0.2989    1.5115 H   0  0  0  0  0  0  0  0  0  0  0  0
   -7.5814    1.9287   -0.5658 H   0  0  0  0  0  0  0  0  0  0  0  0
    8.4085    0.6887   -0.7701 H   0  0  0  0  0  0  0  0  0  0  0  0
  1  3  1  0  0  0  0
  1  5  1  0  0  0  0
  1  6  2  0  0  0  0
  1  7  2  0  0  0  0
  2  4  1  0  0  0  0
  2  8  1  0  0  0  0
  2  9  2  0  0  0  0
  2 10  2  0  0  0  0
  3 18  1  0  0  0  0
  4 29  1  0  0  0  0
  5 58  1  0  0  0  0
  8 59  1  0  0  0  0
 11 12  1  0  0  0  0
 11 13  1  0  0  0  0
 11 19  1  0  0  0  0
 11 30  1  0  0  0  0
 12 16  1  0  0  0  0
 12 18  1  0  0  0  0
 12 24  1  0  0  0  0
 13 14  1  0  0  0  0
 13 21  1  0  0  0  0
 13 31  1  0  0  0  0
 14 15  1  0  0  0  0
 14 17  1  0  0  0  0
 14 32  1  0  0  0  0
 15 22  1  0  0  0  0
 15 23  1  0  0  0  0
 15 26  1  0  0  0  0
 16 17  1  0  0  0  0
 16 33  1  0  0  0  0
 16 34  1  0  0  0  0
 17 35  1  0  0  0  0
 17 36  1  0  0  0  0
 18 20  1  0  0  0  0
 18 37  1  0  0  0  0
 19 20  1  0  0  0  0
 19 38  1  0  0  0  0
 19 39  1  0  0  0  0
 20 40  1  0  0  0  0
 20 41  1  0  0  0  0
 21 25  1  0  0  0  0
 21 42  1  0  0  0  0
 21 43  1  0  0  0  0
 22 25  2  0  0  0  0
 22 27  1  0  0  0  0
 23 28  1  0  0  0  0
 23 44  1  0  0  0  0
 23 45  1  0  0  0  0
 24 46  1  0  0  0  0
 24 47  1  0  0  0  0
 24 48  1  0  0  0  0
 25 49  1  0  0  0  0
 26 50  1  0  0  0  0
 26 51  1  0  0  0  0
 26 52  1  0  0  0  0
 27 29  1  0  0  0  0
 27 53  1  0  0  0  0
 27 54  1  0  0  0  0
 28 29  1  0  0  0  0
 28 55  1  0  0  0  0
 28 56  1  0  0  0  0
 29 57  1  0  0  0  0
M  END
> <PUBCHEM_COMPOUND_CID>
14178991

> <PUBCHEM_CONFORMER_RMSD>
0.8

> <PUBCHEM_CONFORMER_DIVERSEORDER>
1
6
5
4
2
3

> <PUBCHEM_MMFF94_PARTIAL_CHARGES>
20
1 1.67
10 -0.65
15 0.14
18 0.28
2 1.67
21 0.14
22 -0.28
25 -0.29
27 0.14
29 0.28
3 -0.46
4 -0.46
49 0.15
5 -0.68
58 0.5
59 0.5
6 -0.65
7 -0.65
8 -0.68
9 -0.65

> <PUBCHEM_EFFECTIVE_ROTOR_COUNT>
6

> <PUBCHEM_PHARMACOPHORE_FEATURES>
12
1 10 acceptor
1 5 acceptor
1 6 acceptor
1 7 acceptor
1 8 acceptor
1 9 acceptor
4 1 5 6 7 anion
4 2 8 9 10 anion
5 11 12 18 19 20 rings
6 11 12 13 14 16 17 rings
6 13 14 15 21 22 25 rings
6 15 22 23 27 28 29 rings

> <PUBCHEM_HEAVY_ATOM_COUNT>
29

> <PUBCHEM_ATOM_DEF_STEREO_COUNT>
7

> <PUBCHEM_ATOM_UDEF_STEREO_COUNT>
0

> <PUBCHEM_BOND_DEF_STEREO_COUNT>
0

> <PUBCHEM_BOND_UDEF_STEREO_COUNT>
0

> <PUBCHEM_ISOTOPIC_ATOM_COUNT>
0

> <PUBCHEM_COMPONENT_COUNT>
1

> <PUBCHEM_CACTVS_TAUTO_COUNT>
1

> <PUBCHEM_CONFORMER_ID>
00D85AAF00000001

> <PUBCHEM_MMFF94_ENERGY>
75.2798

> <PUBCHEM_FEATURE_SELFOVERLAP>
61.112

> <PUBCHEM_SHAPE_FINGERPRINT>
10 15 18260268563854538704
10050765 1 18123471570490936090
11089746 13 17489587887831065385
11135926 11 18410283692881903503
11578080 2 16484983995146848346
11719270 70 18273214192792000374
12107698 1 16298386864111902037
12166972 35 18040154041414644924
12236239 1 18113337539743513900
12403259 415 18334283288806588636
12788726 201 17131843023701503689
12838862 33 18339908360308159829
13668630 136 14923945643449298618
13685833 64 18333732412269525504
14117953 113 18334012779071029437
14170010 4 18343303652473273006
14251764 18 18333731325452966994
14251764 46 18410855455833194503
15131766 46 14690848169913813544
15183329 4 18412266134332660146
15196674 1 18340205313993512446
15849732 13 17821729446717688316
18608769 82 18408042931255072003
21033648 29 18199456831091600034
21130935 74 18201999975580373674
21150785 3 11169912788116499912
21267235 1 18410298012054226924
21279426 13 18268148652881437982
21774942 28 17059789814355952769
21781051 124 17896340136388131682
21792934 111 18272644649815931577
21792961 116 17967805003780275446
22224240 67 15769772459591652004
23035841 295 18335420170712217683
23402539 116 18130220548998043710
23522609 53 18190771728573115796
23559900 14 18341044224550062160
23569917 315 18337960094830607695
3004659 81 18260546744575658361
3178227 256 18335427867504634986
335352 9 18412544331526605100
350125 39 18409730664033215004
3545911 37 18408885135475920575
3633792 109 18129945573161478353
4073 2 18115310114974962778
4093350 32 16845299293601683502
5104073 3 18268430303049728050
59755656 215 18335422348260980966
59755656 520 17530961414936001251

> <PUBCHEM_SHAPE_MULTIPOLES>
557.55
19.86
1.98
1.08
2.08
0.14
0.13
2.03
-4.23
0.18
0
-0.14
-0.2
-0.04

> <PUBCHEM_SHAPE_SELFOVERLAP>
1157.744

> <PUBCHEM_SHAPE_VOLUME>
321.2

> <PUBCHEM_COORDINATE_TYPE>
2
5
10

$$$$
