193324
  -OEChem-12072210483D

 59 62  0     1  0  0  0  0  0999 V2000
   -6.3577   -1.6012   -0.3598 S   0  0  0  0  0  0  0  0  0  0  0  0
    0.7119   -1.2725    1.8088 O   0  0  0  0  0  0  0  0  0  0  0  0
   -3.9734    1.8117    0.8103 O   0  0  0  0  0  0  0  0  0  0  0  0
   -5.4133   -0.3231    0.0432 O   0  0  0  0  0  0  0  0  0  0  0  0
    7.0019   -1.6419   -1.3602 O   0  0  0  0  0  0  0  0  0  0  0  0
   -7.7545   -1.3055    0.4293 O   0  0  0  0  0  0  0  0  0  0  0  0
   -6.6334   -1.5185   -1.7821 O   0  0  0  0  0  0  0  0  0  0  0  0
   -5.7748   -2.8059    0.2008 O   0  0  0  0  0  0  0  0  0  0  0  0
   -0.9304    0.7967    0.1916 C   0  0  2  0  0  0  0  0  0  0  0  0
    0.2165    1.6381   -0.4024 C   0  0  2  0  0  0  0  0  0  0  0  0
    1.5865    1.3210    0.2118 C   0  0  1  0  0  0  0  0  0  0  0  0
    1.9138   -0.1864   -0.0470 C   0  0  1  0  0  0  0  0  0  0  0  0
    3.3593   -0.5969    0.4523 C   0  0  2  0  0  0  0  0  0  0  0  0
   -0.6333   -0.6826   -0.1129 C   0  0  0  0  0  0  0  0  0  0  0  0
   -2.1124    1.3877   -0.6133 C   0  0  2  0  0  0  0  0  0  0  0  0
    0.7540   -1.1338    0.3953 C   0  0  2  0  0  0  0  0  0  0  0  0
   -0.3219    3.0637   -0.3357 C   0  0  0  0  0  0  0  0  0  0  0  0
    2.6701    2.2172   -0.4073 C   0  0  0  0  0  0  0  0  0  0  0  0
   -1.8177    2.9021   -0.6646 C   0  0  0  0  0  0  0  0  0  0  0  0
   -1.1464    1.0186    1.7113 C   0  0  0  0  0  0  0  0  0  0  0  0
    4.3836    0.4106   -0.0876 C   0  0  0  0  0  0  0  0  0  0  0  0
    4.0567    1.8703    0.1131 C   0  0  0  0  0  0  0  0  0  0  0  0
    3.6723   -2.0196   -0.0963 C   0  0  0  0  0  0  0  0  0  0  0  0
    3.5017   -0.6100    1.9912 C   0  0  0  0  0  0  0  0  0  0  0  0
   -3.4622    1.0843   -0.0399 C   0  0  0  0  0  0  0  0  0  0  0  0
    5.1476   -2.3825   -0.0384 C   0  0  0  0  0  0  0  0  0  0  0  0
    5.5394    0.0661   -0.6795 C   0  0  0  0  0  0  0  0  0  0  0  0
    5.9658   -1.3494   -0.7672 C   0  0  0  0  0  0  0  0  0  0  0  0
   -4.1498   -0.1580   -0.5649 C   0  0  0  0  0  0  0  0  0  0  0  0
    0.2967    1.3990   -1.4768 H   0  0  0  0  0  0  0  0  0  0  0  0
    1.5693    1.5224    1.2873 H   0  0  0  0  0  0  0  0  0  0  0  0
    1.9423   -0.2842   -1.1457 H   0  0  0  0  0  0  0  0  0  0  0  0
   -0.6744   -0.8513   -1.1966 H   0  0  0  0  0  0  0  0  0  0  0  0
   -1.4027   -1.3176    0.3408 H   0  0  0  0  0  0  0  0  0  0  0  0
   -2.0949    1.0158   -1.6472 H   0  0  0  0  0  0  0  0  0  0  0  0
    0.9321   -2.1375   -0.0049 H   0  0  0  0  0  0  0  0  0  0  0  0
    0.1715    3.7282   -1.0520 H   0  0  0  0  0  0  0  0  0  0  0  0
   -0.1921    3.4937    0.6637 H   0  0  0  0  0  0  0  0  0  0  0  0
    2.4634    3.2693   -0.1784 H   0  0  0  0  0  0  0  0  0  0  0  0
    2.6566    2.1230   -1.5011 H   0  0  0  0  0  0  0  0  0  0  0  0
   -2.4179    3.5012    0.0279 H   0  0  0  0  0  0  0  0  0  0  0  0
   -2.0269    3.2834   -1.6712 H   0  0  0  0  0  0  0  0  0  0  0  0
   -0.2292    1.0067    2.2975 H   0  0  0  0  0  0  0  0  0  0  0  0
   -1.6003    1.9926    1.9246 H   0  0  0  0  0  0  0  0  0  0  0  0
   -1.8174    0.2575    2.1256 H   0  0  0  0  0  0  0  0  0  0  0  0
    4.1182    2.1073    1.1823 H   0  0  0  0  0  0  0  0  0  0  0  0
    4.7908    2.5152   -0.3856 H   0  0  0  0  0  0  0  0  0  0  0  0
    3.3490   -2.0874   -1.1446 H   0  0  0  0  0  0  0  0  0  0  0  0
    3.1027   -2.7792    0.4525 H   0  0  0  0  0  0  0  0  0  0  0  0
    4.5560   -0.6534    2.2929 H   0  0  0  0  0  0  0  0  0  0  0  0
    3.0828    0.2870    2.4572 H   0  0  0  0  0  0  0  0  0  0  0  0
    3.0260   -1.4860    2.4423 H   0  0  0  0  0  0  0  0  0  0  0  0
    5.2986   -3.3526   -0.5248 H   0  0  0  0  0  0  0  0  0  0  0  0
    5.5095   -2.4575    0.9918 H   0  0  0  0  0  0  0  0  0  0  0  0
    1.0108   -0.4500    2.2223 H   0  0  0  0  0  0  0  0  0  0  0  0
    6.2338    0.8086   -1.0581 H   0  0  0  0  0  0  0  0  0  0  0  0
   -3.5324   -1.0322   -0.3486 H   0  0  0  0  0  0  0  0  0  0  0  0
   -4.2793   -0.0505   -1.6463 H   0  0  0  0  0  0  0  0  0  0  0  0
   -7.6574   -1.0506    1.3768 H   0  0  0  0  0  0  0  0  0  0  0  0
  1  4  1  0  0  0  0
  1  6  1  0  0  0  0
  1  7  2  0  0  0  0
  1  8  2  0  0  0  0
  2 16  1  0  0  0  0
  2 55  1  0  0  0  0
  3 25  2  0  0  0  0
  4 29  1  0  0  0  0
  5 28  2  0  0  0  0
  6 59  1  0  0  0  0
  9 10  1  0  0  0  0
  9 14  1  0  0  0  0
  9 15  1  0  0  0  0
  9 20  1  0  0  0  0
 10 11  1  0  0  0  0
 10 17  1  0  0  0  0
 10 30  1  0  0  0  0
 11 12  1  0  0  0  0
 11 18  1  0  0  0  0
 11 31  1  0  0  0  0
 12 13  1  0  0  0  0
 12 16  1  0  0  0  0
 12 32  1  0  0  0  0
 13 21  1  0  0  0  0
 13 23  1  0  0  0  0
 13 24  1  0  0  0  0
 14 16  1  0  0  0  0
 14 33  1  0  0  0  0
 14 34  1  0  0  0  0
 15 19  1  0  0  0  0
 15 25  1  0  0  0  0
 15 35  1  0  0  0  0
 16 36  1  0  0  0  0
 17 19  1  0  0  0  0
 17 37  1  0  0  0  0
 17 38  1  0  0  0  0
 18 22  1  0  0  0  0
 18 39  1  0  0  0  0
 18 40  1  0  0  0  0
 19 41  1  0  0  0  0
 19 42  1  0  0  0  0
 20 43  1  0  0  0  0
 20 44  1  0  0  0  0
 20 45  1  0  0  0  0
 21 22  1  0  0  0  0
 21 27  2  0  0  0  0
 22 46  1  0  0  0  0
 22 47  1  0  0  0  0
 23 26  1  0  0  0  0
 23 48  1  0  0  0  0
 23 49  1  0  0  0  0
 24 50  1  0  0  0  0
 24 51  1  0  0  0  0
 24 52  1  0  0  0  0
 25 29  1  0  0  0  0
 26 28  1  0  0  0  0
 26 53  1  0  0  0  0
 26 54  1  0  0  0  0
 27 28  1  0  0  0  0
 27 56  1  0  0  0  0
 29 57  1  0  0  0  0
 29 58  1  0  0  0  0
M  END
> <PUBCHEM_COMPOUND_CID>
193324

> <PUBCHEM_CONFORMER_RMSD>
0.8

> <PUBCHEM_CONFORMER_DIVERSEORDER>
1
13
19
5
12
9
16
10
2
6
18
14
15
8
3
17
11
7
4

> <PUBCHEM_MMFF94_PARTIAL_CHARGES>
21
1 1.67
13 0.14
15 0.06
16 0.28
2 -0.68
21 -0.28
22 0.14
25 0.45
26 0.06
27 -0.14
28 0.49
29 0.34
3 -0.57
4 -0.46
5 -0.57
55 0.4
56 0.15
59 0.5
6 -0.68
7 -0.65
8 -0.65

> <PUBCHEM_EFFECTIVE_ROTOR_COUNT>
5.8

> <PUBCHEM_PHARMACOPHORE_FEATURES>
12
1 2 acceptor
1 2 donor
1 3 acceptor
1 5 acceptor
1 6 acceptor
1 7 acceptor
1 8 acceptor
4 1 6 7 8 anion
5 9 10 15 17 19 rings
6 11 12 13 18 21 22 rings
6 13 21 23 26 27 28 rings
6 9 10 11 12 14 16 rings

> <PUBCHEM_HEAVY_ATOM_COUNT>
29

> <PUBCHEM_ATOM_DEF_STEREO_COUNT>
7

> <PUBCHEM_ATOM_UDEF_STEREO_COUNT>
0

> <PUBCHEM_BOND_DEF_STEREO_COUNT>
0

> <PUBCHEM_BOND_UDEF_STEREO_COUNT>
0

> <PUBCHEM_ISOTOPIC_ATOM_COUNT>
0

> <PUBCHEM_COMPONENT_COUNT>
1

> <PUBCHEM_CACTVS_TAUTO_COUNT>
15

> <PUBCHEM_CONFORMER_ID>
0002F32C00000001

> <PUBCHEM_MMFF94_ENERGY>
83.1525

> <PUBCHEM_FEATURE_SELFOVERLAP>
61.052

> <PUBCHEM_SHAPE_FINGERPRINT>
10076449 9 18060426807385839950
10366900 7 17603873269331371280
10693767 8 18410565219303133023
11089746 13 11314312767005274523
11578080 2 12974464347181442470
117089 54 18126573310453979238
11963148 33 18411130312329905198
12166972 35 18272654553931167384
12236239 1 18202568371267262337
12403259 226 18337384938294852804
12422481 6 17489587879014434103
12592606 108 18341047515497382791
12623949 98 17988371377436748294
13533116 47 18272651298404024432
13673619 4 18059855056084326833
13690498 29 18187079534467096381
13782708 43 17775280543215778606
13862211 1 18334010562893991962
14251764 30 18060135436066020347
14347332 77 18337950082849123940
14767858 380 17967821539388807174
14787075 74 18186803573442520208
14931854 50 17821726109143412315
14955137 171 18131631209901226601
15082195 135 17823993431454430076
15142383 8 13901914383948373515
15196674 1 18263645057348990068
15927050 60 17548698933819872517
17492 89 18266454313504622478
18222031 100 18335696148252186833
18335252 98 18342739645973558632
20028762 73 18413385427863175710
20281389 69 10015591610214812687
20775438 99 17979053196395071398
21033650 10 16588296139228250965
21130935 74 18127126369777803210
21150785 3 17821453465009755238
21267235 1 18411142437327250375
21774942 28 12613021774035279438
21859007 373 12463029670449369507
221357 26 18408604747463532900
22149856 69 18341905112395451017
22393880 68 18114452358360640837
23522609 53 18123223180191742892
23559900 14 18410289195236039160
23569943 247 17695077604817615090
2838139 119 8502384317245907683
3004659 81 18186798093322440429
46194498 28 17386280021342366261
465052 167 18273498974703066452
484989 97 17969514864367941722
5104073 3 18201996599324311200
59755656 215 18186802486932105122
7495541 125 17561075917080282912

> <PUBCHEM_SHAPE_MULTIPOLES>
559.57
16.49
3.05
1.21
15.57
0.74
-0.36
-14.17
4.62
0.91
0.41
-0.23
-0.25
-0.09

> <PUBCHEM_SHAPE_SELFOVERLAP>
1180.104

> <PUBCHEM_SHAPE_VOLUME>
316.4

> <PUBCHEM_COORDINATE_TYPE>
2
5
10

$$$$
