21155376
  -OEChem-12072210483D

 61 64  0     1  0  0  0  0  0999 V2000
   -5.6920   -0.9907    0.8495 S   0  0  0  0  0  0  0  0  0  0  0  0
   -4.3700   -0.0631    0.6169 O   0  0  0  0  0  0  0  0  0  0  0  0
    6.5484   -0.4473   -0.2777 O   0  0  0  0  0  0  0  0  0  0  0  0
   -6.0556   -0.7537    2.4221 O   0  0  0  0  0  0  0  0  0  0  0  0
   -6.7670   -0.4172    0.0612 O   0  0  0  0  0  0  0  0  0  0  0  0
   -5.3283   -2.3852    0.6808 O   0  0  0  0  0  0  0  0  0  0  0  0
    0.2852   -0.1069   -0.2577 C   0  0  1  0  0  0  0  0  0  0  0  0
    1.1703    1.1541    0.0095 C   0  0  2  0  0  0  0  0  0  0  0  0
    2.4456    0.7104    0.7347 C   0  0  1  0  0  0  0  0  0  0  0  0
    3.2772   -0.3075   -0.0763 C   0  0  2  0  0  0  0  0  0  0  0  0
   -1.0755    0.2675   -0.9551 C   0  0  2  0  0  0  0  0  0  0  0  0
   -1.7907    1.3180   -0.0459 C   0  0  1  0  0  0  0  0  0  0  0  0
    1.0812   -1.2347   -0.9656 C   0  0  0  0  0  0  0  0  0  0  0  0
    2.4179   -1.5634   -0.2760 C   0  0  0  0  0  0  0  0  0  0  0  0
    0.4044    2.2129    0.8157 C   0  0  0  0  0  0  0  0  0  0  0  0
    4.4692   -0.4813    0.8906 C   0  0  2  0  0  0  0  0  0  0  0  0
    3.4715    1.7631    1.1404 C   0  0  0  0  0  0  0  0  0  0  0  0
   -0.9376    2.5714    0.1812 C   0  0  0  0  0  0  0  0  0  0  0  0
   -2.0016   -0.9777   -1.0545 C   0  0  0  0  0  0  0  0  0  0  0  0
    4.7490    0.9468    1.4060 C   0  0  0  0  0  0  0  0  0  0  0  0
   -3.1999    1.6823   -0.5441 C   0  0  0  0  0  0  0  0  0  0  0  0
    3.7553    0.2264   -1.4525 C   0  0  0  0  0  0  0  0  0  0  0  0
   -0.8283    0.8087   -2.3869 C   0  0  0  0  0  0  0  0  0  0  0  0
   -3.4247   -0.6492   -1.5243 C   0  0  0  0  0  0  0  0  0  0  0  0
   -4.0855    0.4438   -0.6870 C   0  0  1  0  0  0  0  0  0  0  0  0
    5.6842   -1.1159    0.2871 C   0  0  0  0  0  0  0  0  0  0  0  0
    5.7972   -2.6116    0.4081 C   0  0  0  0  0  0  0  0  0  0  0  0
    0.0228   -0.5156    0.7314 H   0  0  0  0  0  0  0  0  0  0  0  0
    1.4501    1.6167   -0.9423 H   0  0  0  0  0  0  0  0  0  0  0  0
    2.1216    0.2253    1.6711 H   0  0  0  0  0  0  0  0  0  0  0  0
   -1.9240    0.8556    0.9446 H   0  0  0  0  0  0  0  0  0  0  0  0
    1.2733   -0.9701   -2.0097 H   0  0  0  0  0  0  0  0  0  0  0  0
    0.4857   -2.1542   -0.9856 H   0  0  0  0  0  0  0  0  0  0  0  0
    2.2066   -2.0347    0.6925 H   0  0  0  0  0  0  0  0  0  0  0  0
    2.9522   -2.3091   -0.8751 H   0  0  0  0  0  0  0  0  0  0  0  0
    1.0060    3.1248    0.9071 H   0  0  0  0  0  0  0  0  0  0  0  0
    0.2307    1.8474    1.8360 H   0  0  0  0  0  0  0  0  0  0  0  0
    4.1695   -1.0882    1.7564 H   0  0  0  0  0  0  0  0  0  0  0  0
    3.1624    2.3180    2.0319 H   0  0  0  0  0  0  0  0  0  0  0  0
    3.6395    2.4906    0.3386 H   0  0  0  0  0  0  0  0  0  0  0  0
   -0.7761    3.1093   -0.7598 H   0  0  0  0  0  0  0  0  0  0  0  0
   -1.4657    3.2649    0.8471 H   0  0  0  0  0  0  0  0  0  0  0  0
   -2.0606   -1.4696   -0.0747 H   0  0  0  0  0  0  0  0  0  0  0  0
   -1.5799   -1.7161   -1.7467 H   0  0  0  0  0  0  0  0  0  0  0  0
    4.9637    0.9159    2.4809 H   0  0  0  0  0  0  0  0  0  0  0  0
    5.6056    1.4345    0.9295 H   0  0  0  0  0  0  0  0  0  0  0  0
   -3.6621    2.3699    0.1758 H   0  0  0  0  0  0  0  0  0  0  0  0
   -3.1438    2.2153   -1.4996 H   0  0  0  0  0  0  0  0  0  0  0  0
    2.9278    0.5329   -2.0976 H   0  0  0  0  0  0  0  0  0  0  0  0
    4.3039   -0.5493   -1.9991 H   0  0  0  0  0  0  0  0  0  0  0  0
    4.4202    1.0909   -1.3601 H   0  0  0  0  0  0  0  0  0  0  0  0
   -0.1253    1.6448   -2.4074 H   0  0  0  0  0  0  0  0  0  0  0  0
   -0.4248    0.0286   -3.0410 H   0  0  0  0  0  0  0  0  0  0  0  0
   -1.7459    1.1653   -2.8628 H   0  0  0  0  0  0  0  0  0  0  0  0
   -4.0176   -1.5696   -1.4996 H   0  0  0  0  0  0  0  0  0  0  0  0
   -3.3983   -0.3327   -2.5733 H   0  0  0  0  0  0  0  0  0  0  0  0
   -5.0184    0.7585   -1.1679 H   0  0  0  0  0  0  0  0  0  0  0  0
    5.7467   -2.9027    1.4603 H   0  0  0  0  0  0  0  0  0  0  0  0
    6.7606   -2.9374    0.0053 H   0  0  0  0  0  0  0  0  0  0  0  0
    5.0008   -3.0975   -0.1573 H   0  0  0  0  0  0  0  0  0  0  0  0
   -6.8439   -1.2461    2.7514 H   0  0  0  0  0  0  0  0  0  0  0  0
  1  2  1  0  0  0  0
  1  4  1  0  0  0  0
  1  5  2  0  0  0  0
  1  6  2  0  0  0  0
  2 25  1  0  0  0  0
  3 26  2  0  0  0  0
  4 61  1  0  0  0  0
  7  8  1  0  0  0  0
  7 11  1  0  0  0  0
  7 13  1  0  0  0  0
  7 28  1  0  0  0  0
  8  9  1  0  0  0  0
  8 15  1  0  0  0  0
  8 29  1  0  0  0  0
  9 10  1  0  0  0  0
  9 17  1  0  0  0  0
  9 30  1  0  0  0  0
 10 14  1  0  0  0  0
 10 16  1  0  0  0  0
 10 22  1  0  0  0  0
 11 12  1  0  0  0  0
 11 19  1  0  0  0  0
 11 23  1  0  0  0  0
 12 18  1  0  0  0  0
 12 21  1  0  0  0  0
 12 31  1  0  0  0  0
 13 14  1  0  0  0  0
 13 32  1  0  0  0  0
 13 33  1  0  0  0  0
 14 34  1  0  0  0  0
 14 35  1  0  0  0  0
 15 18  1  0  0  0  0
 15 36  1  0  0  0  0
 15 37  1  0  0  0  0
 16 20  1  0  0  0  0
 16 26  1  0  0  0  0
 16 38  1  0  0  0  0
 17 20  1  0  0  0  0
 17 39  1  0  0  0  0
 17 40  1  0  0  0  0
 18 41  1  0  0  0  0
 18 42  1  0  0  0  0
 19 24  1  0  0  0  0
 19 43  1  0  0  0  0
 19 44  1  0  0  0  0
 20 45  1  0  0  0  0
 20 46  1  0  0  0  0
 21 25  1  0  0  0  0
 21 47  1  0  0  0  0
 21 48  1  0  0  0  0
 22 49  1  0  0  0  0
 22 50  1  0  0  0  0
 22 51  1  0  0  0  0
 23 52  1  0  0  0  0
 23 53  1  0  0  0  0
 23 54  1  0  0  0  0
 24 25  1  0  0  0  0
 24 55  1  0  0  0  0
 24 56  1  0  0  0  0
 25 57  1  0  0  0  0
 26 27  1  0  0  0  0
 27 58  1  0  0  0  0
 27 59  1  0  0  0  0
 27 60  1  0  0  0  0
M  END
> <PUBCHEM_COMPOUND_CID>
21155376

> <PUBCHEM_CONFORMER_RMSD>
0.8

> <PUBCHEM_CONFORMER_DIVERSEORDER>
1
5
9
11
13
12
4
8
6
15
7
2
10
14
3

> <PUBCHEM_MMFF94_PARTIAL_CHARGES>
11
1 1.67
16 0.06
2 -0.46
25 0.28
26 0.45
27 0.06
3 -0.57
4 -0.68
5 -0.65
6 -0.65
61 0.5

> <PUBCHEM_EFFECTIVE_ROTOR_COUNT>
5.2

> <PUBCHEM_PHARMACOPHORE_FEATURES>
9
1 3 acceptor
1 4 acceptor
1 5 acceptor
1 6 acceptor
4 1 4 5 6 anion
5 9 10 16 17 20 rings
6 11 12 19 21 24 25 rings
6 7 8 11 12 15 18 rings
6 7 8 9 10 13 14 rings

> <PUBCHEM_HEAVY_ATOM_COUNT>
27

> <PUBCHEM_ATOM_DEF_STEREO_COUNT>
8

> <PUBCHEM_ATOM_UDEF_STEREO_COUNT>
0

> <PUBCHEM_BOND_DEF_STEREO_COUNT>
0

> <PUBCHEM_BOND_UDEF_STEREO_COUNT>
0

> <PUBCHEM_ISOTOPIC_ATOM_COUNT>
0

> <PUBCHEM_COMPONENT_COUNT>
1

> <PUBCHEM_CACTVS_TAUTO_COUNT>
3

> <PUBCHEM_CONFORMER_ID>
0142CE3000000001

> <PUBCHEM_MMFF94_ENERGY>
82.3802

> <PUBCHEM_FEATURE_SELFOVERLAP>
45.821

> <PUBCHEM_SHAPE_FINGERPRINT>
10366900 7 14562533947086582188
10554248 39 8862944974909028208
11796584 16 17240479226412204243
11963148 33 18335697260586588706
12166972 35 17894635850931993980
12236239 1 18114743733869809084
12422481 6 17489874799619142205
12616971 3 17632006524579373972
12633257 1 18131629015077850135
13103583 49 18271820046665798491
13140716 1 18058441178625490605
13257819 101 12103571840529327993
13782708 43 17968090881278280482
14251764 18 17346593118735078189
14251764 30 18260548935056309139
14341114 176 18343858918772360752
14341114 328 16917349268282881209
14767858 380 12757150186362418251
14955137 171 18341895229132870617
15196674 1 18130210615314005980
15238133 3 14549016602668666704
15510800 12 17604159237424584075
15788980 27 18341040848731790484
15927050 60 17621882415043226060
17349148 13 14418129582656396317
1813 80 17894910758766669501
18222031 100 17022901259046445077
18335252 98 18260270759337129514
18608769 82 18409447025126691114
18769570 83 13686301279102117939
18785283 64 18193556902920887805
19141452 34 17203600523362009412
20281389 69 13182743632625542955
21150785 3 14923950054660558730
21267235 1 18272933791788572462
21637258 2 17458337576830627915
21792934 111 18200582623598360353
22122407 14 13973677398975141970
22182313 1 17631456657012401924
23402539 116 15213013817502060519
23522609 53 17915760840440071593
23559900 14 18334848403170241357
2838139 119 10447932745830074923
3178227 256 18272089396876115802
335352 9 18130213861808466620
34797466 226 16877666764529369686
350125 39 18201995496208889896
392239 28 18343588443075299483
4093350 32 15984823779544580896
46194498 28 17603584124049102284
465052 167 18410298033513232654
5104073 3 18201430334194064760
7495541 125 18040718107821802757
8863177 126 18337110167281679867
999808 66 18335987493006117650

> <PUBCHEM_SHAPE_MULTIPOLES>
530.15
14.97
2.25
1.58
4.62
0.19
0.13
-8.34
-6.17
-0.59
-0.49
1.26
-0.04
1.17

> <PUBCHEM_SHAPE_SELFOVERLAP>
1106.212

> <PUBCHEM_SHAPE_VOLUME>
304.4

> <PUBCHEM_COORDINATE_TYPE>
2
5
10

$$$$
