3035496
  -OEChem-12072210483D

 46 49  0     1  0  0  0  0  0999 V2000
    5.4976   -0.2514    0.7315 S   0  0  0  0  0  0  0  0  0  0  0  0
   -5.9662   -1.3401    0.9761 O   0  0  0  0  0  0  0  0  0  0  0  0
    4.7009    0.2671   -0.6107 O   0  0  0  0  0  0  0  0  0  0  0  0
    7.0379    0.2273    0.4801 O   0  0  0  0  0  0  0  0  0  0  0  0
    4.9907    0.4651    1.8874 O   0  0  0  0  0  0  0  0  0  0  0  0
    5.4873   -1.7027    0.7172 O   0  0  0  0  0  0  0  0  0  0  0  0
   -3.6901   -0.6117    0.3328 C   0  0  1  0  0  0  0  0  0  0  0  0
   -3.2555    0.5981   -0.5237 C   0  0  1  0  0  0  0  0  0  0  0  0
   -5.2015   -0.6137    0.0332 C   0  0  2  0  0  0  0  0  0  0  0  0
   -2.9454   -1.8621   -0.1664 C   0  0  0  0  0  0  0  0  0  0  0  0
   -4.2891    1.6676   -0.1601 C   0  0  0  0  0  0  0  0  0  0  0  0
   -1.7714    0.8254   -0.4085 C   0  0  0  0  0  0  0  0  0  0  0  0
   -5.5941    0.8758    0.0381 C   0  0  0  0  0  0  0  0  0  0  0  0
   -0.9538   -0.3730   -0.8802 C   0  0  2  0  0  0  0  0  0  0  0  0
   -1.4167   -1.6633   -0.1491 C   0  0  0  0  0  0  0  0  0  0  0  0
   -3.4330   -0.4319    1.8516 C   0  0  0  0  0  0  0  0  0  0  0  0
    0.5535   -0.1831   -0.7911 C   0  0  0  0  0  0  0  0  0  0  0  0
   -1.2091    1.9448    0.0697 C   0  0  0  0  0  0  0  0  0  0  0  0
    0.2652    2.1402    0.2131 C   0  0  0  0  0  0  0  0  0  0  0  0
    1.1163    0.9967   -0.2733 C   0  0  0  0  0  0  0  0  0  0  0  0
    1.4134   -1.1871   -1.2721 C   0  0  0  0  0  0  0  0  0  0  0  0
    2.5138    1.1329   -0.2122 C   0  0  0  0  0  0  0  0  0  0  0  0
    2.7993   -1.0396   -1.2093 C   0  0  0  0  0  0  0  0  0  0  0  0
    3.3500    0.1189   -0.6741 C   0  0  0  0  0  0  0  0  0  0  0  0
   -3.4361    0.3645   -1.5864 H   0  0  0  0  0  0  0  0  0  0  0  0
   -5.4010   -1.0395   -0.9576 H   0  0  0  0  0  0  0  0  0  0  0  0
   -3.2517   -2.0933   -1.1951 H   0  0  0  0  0  0  0  0  0  0  0  0
   -3.2102   -2.7374    0.4387 H   0  0  0  0  0  0  0  0  0  0  0  0
   -4.3911    2.4210   -0.9481 H   0  0  0  0  0  0  0  0  0  0  0  0
   -4.0337    2.1929    0.7666 H   0  0  0  0  0  0  0  0  0  0  0  0
   -6.0950    1.1796    0.9640 H   0  0  0  0  0  0  0  0  0  0  0  0
   -6.2940    1.0776   -0.7808 H   0  0  0  0  0  0  0  0  0  0  0  0
   -1.1775   -0.4946   -1.9509 H   0  0  0  0  0  0  0  0  0  0  0  0
   -1.0576   -1.6533    0.8881 H   0  0  0  0  0  0  0  0  0  0  0  0
   -0.9616   -2.5471   -0.6122 H   0  0  0  0  0  0  0  0  0  0  0  0
   -2.3813   -0.2288    2.0748 H   0  0  0  0  0  0  0  0  0  0  0  0
   -4.0108    0.3935    2.2796 H   0  0  0  0  0  0  0  0  0  0  0  0
   -3.7086   -1.3392    2.4016 H   0  0  0  0  0  0  0  0  0  0  0  0
   -1.8303    2.7737    0.3951 H   0  0  0  0  0  0  0  0  0  0  0  0
    0.4866    2.3168    1.2728 H   0  0  0  0  0  0  0  0  0  0  0  0
    0.5430    3.0437   -0.3437 H   0  0  0  0  0  0  0  0  0  0  0  0
   -5.9624   -0.8610    1.8212 H   0  0  0  0  0  0  0  0  0  0  0  0
    1.0085   -2.0965   -1.7090 H   0  0  0  0  0  0  0  0  0  0  0  0
    2.9496    2.0441    0.1927 H   0  0  0  0  0  0  0  0  0  0  0  0
    3.4406   -1.8322   -1.5850 H   0  0  0  0  0  0  0  0  0  0  0  0
    7.3994    0.0290   -0.4154 H   0  0  0  0  0  0  0  0  0  0  0  0
  1  3  1  0  0  0  0
  1  4  1  0  0  0  0
  1  5  2  0  0  0  0
  1  6  2  0  0  0  0
  2  9  1  0  0  0  0
  2 42  1  0  0  0  0
  3 24  1  0  0  0  0
  4 46  1  0  0  0  0
  7  8  1  0  0  0  0
  7  9  1  0  0  0  0
  7 10  1  0  0  0  0
  7 16  1  0  0  0  0
  8 11  1  0  0  0  0
  8 12  1  0  0  0  0
  8 25  1  0  0  0  0
  9 13  1  0  0  0  0
  9 26  1  0  0  0  0
 10 15  1  0  0  0  0
 10 27  1  0  0  0  0
 10 28  1  0  0  0  0
 11 13  1  0  0  0  0
 11 29  1  0  0  0  0
 11 30  1  0  0  0  0
 12 14  1  0  0  0  0
 12 18  2  0  0  0  0
 13 31  1  0  0  0  0
 13 32  1  0  0  0  0
 14 15  1  0  0  0  0
 14 17  1  0  0  0  0
 14 33  1  0  0  0  0
 15 34  1  0  0  0  0
 15 35  1  0  0  0  0
 16 36  1  0  0  0  0
 16 37  1  0  0  0  0
 16 38  1  0  0  0  0
 17 20  2  0  0  0  0
 17 21  1  0  0  0  0
 18 19  1  0  0  0  0
 18 39  1  0  0  0  0
 19 20  1  0  0  0  0
 19 40  1  0  0  0  0
 19 41  1  0  0  0  0
 20 22  1  0  0  0  0
 21 23  2  0  0  0  0
 21 43  1  0  0  0  0
 22 24  2  0  0  0  0
 22 44  1  0  0  0  0
 23 24  1  0  0  0  0
 23 45  1  0  0  0  0
M  END
> <PUBCHEM_COMPOUND_CID>
3035496

> <PUBCHEM_CONFORMER_RMSD>
0.6

> <PUBCHEM_CONFORMER_DIVERSEORDER>
1
2
4
3

> <PUBCHEM_MMFF94_PARTIAL_CHARGES>
24
1 1.67
12 -0.28
14 0.28
17 -0.14
18 -0.29
19 0.28
2 -0.68
20 -0.14
21 -0.15
22 -0.15
23 -0.15
24 0.08
3 -0.27
39 0.15
4 -0.68
42 0.4
43 0.15
44 0.15
45 0.15
46 0.5
5 -0.65
6 -0.65
8 0.14
9 0.28

> <PUBCHEM_EFFECTIVE_ROTOR_COUNT>
3.2

> <PUBCHEM_PHARMACOPHORE_FEATURES>
10
1 2 acceptor
1 2 donor
1 4 acceptor
1 5 acceptor
1 6 acceptor
4 1 4 5 6 anion
5 7 8 9 11 13 rings
6 12 14 17 18 19 20 rings
6 17 20 21 22 23 24 rings
6 7 8 10 12 14 15 rings

> <PUBCHEM_HEAVY_ATOM_COUNT>
24

> <PUBCHEM_ATOM_DEF_STEREO_COUNT>
4

> <PUBCHEM_ATOM_UDEF_STEREO_COUNT>
0

> <PUBCHEM_BOND_DEF_STEREO_COUNT>
0

> <PUBCHEM_BOND_UDEF_STEREO_COUNT>
0

> <PUBCHEM_ISOTOPIC_ATOM_COUNT>
0

> <PUBCHEM_COMPONENT_COUNT>
1

> <PUBCHEM_CACTVS_TAUTO_COUNT>
1

> <PUBCHEM_CONFORMER_ID>
002E516800000001

> <PUBCHEM_MMFF94_ENERGY>
67.8777

> <PUBCHEM_FEATURE_SELFOVERLAP>
50.909

> <PUBCHEM_SHAPE_FINGERPRINT>
10 15 18341608248656530320
10675989 125 16897360915969771149
10693767 8 13479397392995946240
11045977 3 17988918998862515848
11089746 13 15913325797637001672
11315181 36 18113339725839864573
11578080 2 12678088643432133153
11646440 116 18060147560864036699
11796584 16 17240203235607674706
12035758 1 18342747342534094731
12236239 1 17458065971119135908
12507557 5 18060142050700765097
12596602 18 18113333107701365656
12633257 1 18340492260758610158
12670543 26 11169905078803138764
13140716 1 18128532863121532412
13288520 33 17167861972001715549
13533116 47 17749387040914380826
13668630 136 15719111349230160378
13862211 1 18411417336872743223
13914758 101 16805312272461419903
14251764 18 18409450322927851204
14341114 176 18411417294234176402
14466204 15 18409448042580155561
14528608 73 10879986974067894674
14790565 3 17547012287563336940
15183329 4 15068619392275239176
15196674 1 18340495478169098183
15375358 24 18272374156880029965
15788980 27 18186804677275255060
17349148 13 18343300383391322197
17857418 61 16877657955166382106
17980427 23 13110963145809407073
1813 80 16732985280715619222
18785283 64 18198341951570561960
19489759 90 17967814942640657269
19784866 140 13912314677267394684
20567600 247 15791725330131615034
21033648 29 17346023498839930017
21130935 74 18272373044452669886
21267235 1 18339655498134615127
21279426 13 18195533588914878717
21637258 2 16805315626018455499
22122407 14 15267068098215192586
22182313 1 18129946646360263508
22224240 67 17704065218424491174
23366157 5 17899980735388933212
23402539 116 18413383241898051189
23536379 177 16660644046457077940
23559900 14 18269850735182766734
23569914 152 12833925767615901347
25147074 1 17986105438405939148
26918003 58 18260832596134391821
2838139 119 14333406761612668114
3004659 81 18187091650385124476
335352 9 18411138039434051845
34934 24 18272086076206993695
3680242 22 18336834095573962786
4072396 5 18343579621159511606
465052 167 18334860524184667918
474 4 14548726344621186770
5104073 3 18057330495787953459
559249 180 18040711438053901609
5718773 13 18115874182295445635
59755656 215 18341901736641346790
59755656 520 14908176448074476444
7226269 152 18410290294040583945

> <PUBCHEM_SHAPE_MULTIPOLES>
468.41
14.19
1.86
1.21
10.63
0.18
0.37
-1.88
5.07
-0.94
-0.02
0.54
-0.22
0.58

> <PUBCHEM_SHAPE_SELFOVERLAP>
1007.593

> <PUBCHEM_SHAPE_VOLUME>
260.8

> <PUBCHEM_COORDINATE_TYPE>
2
5
10

$$$$
