3085201
  -OEChem-12072210483D

 50 53  0     1  0  0  0  0  0999 V2000
    5.5039    0.3952   -0.3468 S   0  0  0  0  0  0  0  0  0  0  0  0
    3.9831    0.6641    0.1993 O   0  0  0  0  0  0  0  0  0  0  0  0
   -6.8091    0.4168   -0.8932 O   0  0  0  0  0  0  0  0  0  0  0  0
    6.4361    1.2434    0.6891 O   0  0  0  0  0  0  0  0  0  0  0  0
    5.8017   -1.0115   -0.1513 O   0  0  0  0  0  0  0  0  0  0  0  0
    5.6404    0.9931   -1.6619 O   0  0  0  0  0  0  0  0  0  0  0  0
    0.7136   -0.8925   -0.2249 C   0  0  2  0  0  0  0  0  0  0  0  0
    1.5480    0.2903    0.3047 C   0  0  2  0  0  0  0  0  0  0  0  0
   -0.7086   -0.9028    0.3379 C   0  0  1  0  0  0  0  0  0  0  0  0
   -1.4226    0.4164   -0.0808 C   0  0  2  0  0  0  0  0  0  0  0  0
    0.8812    1.5903   -0.1615 C   0  0  0  0  0  0  0  0  0  0  0  0
    2.8923   -0.0270   -0.3782 C   0  0  2  0  0  0  0  0  0  0  0  0
    1.6174   -2.0996    0.0105 C   0  0  0  0  0  0  0  0  0  0  0  0
   -0.5882    1.6697    0.2904 C   0  0  0  0  0  0  0  0  0  0  0  0
   -2.8731    0.4748    0.4888 C   0  0  2  0  0  0  0  0  0  0  0  0
    3.0375   -1.5537   -0.2253 C   0  0  0  0  0  0  0  0  0  0  0  0
   -1.5131   -2.1109   -0.1566 C   0  0  0  0  0  0  0  0  0  0  0  0
    1.7205    0.3241    1.8447 C   0  0  0  0  0  0  0  0  0  0  0  0
   -2.9194   -2.0994    0.4320 C   0  0  0  0  0  0  0  0  0  0  0  0
   -3.6412   -0.8011    0.1683 C   0  0  0  0  0  0  0  0  0  0  0  0
   -3.6055    1.7297   -0.0301 C   0  0  0  0  0  0  0  0  0  0  0  0
   -5.1023    1.6784    0.2205 C   0  0  0  0  0  0  0  0  0  0  0  0
   -4.9050   -0.8202   -0.2844 C   0  0  0  0  0  0  0  0  0  0  0  0
   -5.6876    0.4325   -0.3913 C   0  0  0  0  0  0  0  0  0  0  0  0
    0.6208   -0.7917   -1.3195 H   0  0  0  0  0  0  0  0  0  0  0  0
   -0.6702   -0.9587    1.4329 H   0  0  0  0  0  0  0  0  0  0  0  0
   -1.4993    0.4089   -1.1795 H   0  0  0  0  0  0  0  0  0  0  0  0
    0.9103    1.6544   -1.2571 H   0  0  0  0  0  0  0  0  0  0  0  0
    1.4300    2.4632    0.2122 H   0  0  0  0  0  0  0  0  0  0  0  0
    2.8435    0.2284   -1.4451 H   0  0  0  0  0  0  0  0  0  0  0  0
    1.3892   -2.9218   -0.6755 H   0  0  0  0  0  0  0  0  0  0  0  0
    1.5175   -2.4830    1.0322 H   0  0  0  0  0  0  0  0  0  0  0  0
   -0.6352    1.8346    1.3731 H   0  0  0  0  0  0  0  0  0  0  0  0
   -1.0260    2.5605   -0.1743 H   0  0  0  0  0  0  0  0  0  0  0  0
   -2.8129    0.5443    1.5842 H   0  0  0  0  0  0  0  0  0  0  0  0
    3.6644   -1.8383    0.6260 H   0  0  0  0  0  0  0  0  0  0  0  0
    3.4747   -1.9932   -1.1285 H   0  0  0  0  0  0  0  0  0  0  0  0
   -1.0173   -3.0435    0.1364 H   0  0  0  0  0  0  0  0  0  0  0  0
   -1.5676   -2.1082   -1.2529 H   0  0  0  0  0  0  0  0  0  0  0  0
    2.2289   -0.5660    2.2284 H   0  0  0  0  0  0  0  0  0  0  0  0
    2.3200    1.1910    2.1460 H   0  0  0  0  0  0  0  0  0  0  0  0
    0.7680    0.3990    2.3758 H   0  0  0  0  0  0  0  0  0  0  0  0
   -2.8581   -2.2454    1.5181 H   0  0  0  0  0  0  0  0  0  0  0  0
   -3.4770   -2.9554    0.0329 H   0  0  0  0  0  0  0  0  0  0  0  0
   -3.4315    1.8397   -1.1091 H   0  0  0  0  0  0  0  0  0  0  0  0
   -3.2025    2.6277    0.4517 H   0  0  0  0  0  0  0  0  0  0  0  0
   -5.5786    2.5526   -0.2362 H   0  0  0  0  0  0  0  0  0  0  0  0
   -5.3281    1.6821    1.2922 H   0  0  0  0  0  0  0  0  0  0  0  0
   -5.4212   -1.7450   -0.5178 H   0  0  0  0  0  0  0  0  0  0  0  0
    6.1363    2.1656    0.8672 H   0  0  0  0  0  0  0  0  0  0  0  0
  1  2  1  0  0  0  0
  1  4  1  0  0  0  0
  1  5  2  0  0  0  0
  1  6  2  0  0  0  0
  2 12  1  0  0  0  0
  3 24  2  0  0  0  0
  4 50  1  0  0  0  0
  7  8  1  0  0  0  0
  7  9  1  0  0  0  0
  7 13  1  0  0  0  0
  7 25  1  0  0  0  0
  8 11  1  0  0  0  0
  8 12  1  0  0  0  0
  8 18  1  0  0  0  0
  9 10  1  0  0  0  0
  9 17  1  0  0  0  0
  9 26  1  0  0  0  0
 10 14  1  0  0  0  0
 10 15  1  0  0  0  0
 10 27  1  0  0  0  0
 11 14  1  0  0  0  0
 11 28  1  0  0  0  0
 11 29  1  0  0  0  0
 12 16  1  0  0  0  0
 12 30  1  0  0  0  0
 13 16  1  0  0  0  0
 13 31  1  0  0  0  0
 13 32  1  0  0  0  0
 14 33  1  0  0  0  0
 14 34  1  0  0  0  0
 15 20  1  0  0  0  0
 15 21  1  0  0  0  0
 15 35  1  0  0  0  0
 16 36  1  0  0  0  0
 16 37  1  0  0  0  0
 17 19  1  0  0  0  0
 17 38  1  0  0  0  0
 17 39  1  0  0  0  0
 18 40  1  0  0  0  0
 18 41  1  0  0  0  0
 18 42  1  0  0  0  0
 19 20  1  0  0  0  0
 19 43  1  0  0  0  0
 19 44  1  0  0  0  0
 20 23  2  0  0  0  0
 21 22  1  0  0  0  0
 21 45  1  0  0  0  0
 21 46  1  0  0  0  0
 22 24  1  0  0  0  0
 22 47  1  0  0  0  0
 22 48  1  0  0  0  0
 23 24  1  0  0  0  0
 23 49  1  0  0  0  0
M  END
> <PUBCHEM_COMPOUND_CID>
3085201

> <PUBCHEM_CONFORMER_RMSD>
0.6

> <PUBCHEM_CONFORMER_DIVERSEORDER>
1
2

> <PUBCHEM_MMFF94_PARTIAL_CHARGES>
15
1 1.67
12 0.28
15 0.14
19 0.14
2 -0.46
20 -0.28
22 0.06
23 -0.14
24 0.49
3 -0.57
4 -0.68
49 0.15
5 -0.65
50 0.5
6 -0.65

> <PUBCHEM_EFFECTIVE_ROTOR_COUNT>
3.8

> <PUBCHEM_PHARMACOPHORE_FEATURES>
9
1 3 acceptor
1 4 acceptor
1 5 acceptor
1 6 acceptor
4 1 4 5 6 anion
5 7 8 12 13 16 rings
6 15 20 21 22 23 24 rings
6 7 8 9 10 11 14 rings
6 9 10 15 17 19 20 rings

> <PUBCHEM_HEAVY_ATOM_COUNT>
24

> <PUBCHEM_ATOM_DEF_STEREO_COUNT>
6

> <PUBCHEM_ATOM_UDEF_STEREO_COUNT>
0

> <PUBCHEM_BOND_DEF_STEREO_COUNT>
0

> <PUBCHEM_BOND_UDEF_STEREO_COUNT>
0

> <PUBCHEM_ISOTOPIC_ATOM_COUNT>
0

> <PUBCHEM_COMPONENT_COUNT>
1

> <PUBCHEM_CACTVS_TAUTO_COUNT>
8

> <PUBCHEM_CONFORMER_ID>
002F139100000001

> <PUBCHEM_MMFF94_ENERGY>
59.2809

> <PUBCHEM_FEATURE_SELFOVERLAP>
45.828

> <PUBCHEM_SHAPE_FINGERPRINT>
10366900 7 17846778499088906875
10411042 1 17762058040357422507
10906281 52 18339660965717731299
11315181 36 17918278670479909673
12011746 2 18343864420298315439
12236239 1 17603585248513043890
12403259 415 18201992227749204073
12516196 113 18131631188020208264
12596602 18 17022904558092921161
12788726 201 17916587518786415257
12838862 33 18337371795916031445
13668630 136 16128374891704712549
14251764 18 18411422813261831667
14528608 73 18412827997226845332
14790565 3 18409735045105741148
15048467 5 17967814963593196086
15183329 4 18409733941430839590
15196674 1 18411420574872012675
1601671 61 18409166614826830140
18608769 82 18336833095643538179
18681886 176 18340762749246206505
200 152 17560797719838741555
20281389 69 18187362121049272676
20681677 155 18260266356325744899
21033648 29 17846205691874292227
21150785 3 13758071935513378800
21267235 1 18411423947186088179
21279426 13 18341053999811030582
21421861 104 17823125727801443418
21521721 280 17917714642937927704
23402539 116 18412823594584608678
23402655 69 18343582919599481639
23559900 14 18271236235645075681
300161 21 18333446538803263515
3004659 81 18336267843492583314
335352 9 18410293618350182284
34797466 226 17060342950557047780
34934 24 18409445881958489011
350125 39 18411420622517475665
3545911 37 18411700989424025619
4073 2 18113624521005916298
4325135 7 18187085053310160876
465052 167 8358261445520778728
474 4 17313395573069397068
484989 97 18193833963647008431
5104073 3 18336833000188705715
542803 24 17675927612094483764
5486654 2 18411422821477239444
59755656 215 18339648845837253430
59755656 520 16877661275013085210
6328613 192 18335143110967584364
9709674 26 18339360872696245411

> <PUBCHEM_SHAPE_MULTIPOLES>
468.41
14.39
2.08
0.94
3.85
0.52
-0.12
-4.06
3.15
-0.66
-0.04
0.61
-0.16
0.06

> <PUBCHEM_SHAPE_SELFOVERLAP>
988.494

> <PUBCHEM_SHAPE_VOLUME>
264.9

> <PUBCHEM_COORDINATE_TYPE>
2
5
10

$$$$
