66429
  -OEChem-12072210483D

 48 51  0     1  0  0  0  0  0999 V2000
    5.5282    0.3994   -0.0576 S   0  0  0  0  0  0  0  0  0  0  0  0
    3.9572    0.6896    0.3041 O   0  0  0  0  0  0  0  0  0  0  0  0
    6.3425    1.3188    1.0161 O   0  0  0  0  0  0  0  0  0  0  0  0
    5.8054   -0.9896    0.2578 O   0  0  0  0  0  0  0  0  0  0  0  0
    5.8044    0.9143   -1.3859 O   0  0  0  0  0  0  0  0  0  0  0  0
   -7.0064    0.4925    0.4301 O   0  0  0  0  0  0  0  0  0  0  0  0
    1.5254    0.3026    0.1712 C   0  0  1  0  0  0  0  0  0  0  0  0
    0.7548   -0.9178   -0.3714 C   0  0  2  0  0  0  0  0  0  0  0  0
   -0.7179   -0.8985    0.0372 C   0  0  1  0  0  0  0  0  0  0  0  0
   -1.3852    0.3765   -0.5622 C   0  0  2  0  0  0  0  0  0  0  0  0
    2.9357   -0.0454   -0.3417 C   0  0  2  0  0  0  0  0  0  0  0  0
    0.9098    1.5665   -0.4415 C   0  0  0  0  0  0  0  0  0  0  0  0
    1.6290   -2.1001    0.0371 C   0  0  0  0  0  0  0  0  0  0  0  0
   -0.6036    1.6583   -0.1669 C   0  0  0  0  0  0  0  0  0  0  0  0
    3.0656   -1.5583   -0.0775 C   0  0  0  0  0  0  0  0  0  0  0  0
   -1.4788   -2.1333   -0.4491 C   0  0  0  0  0  0  0  0  0  0  0  0
    1.5311    0.4335    1.7160 C   0  0  0  0  0  0  0  0  0  0  0  0
   -2.8810    0.4118   -0.2604 C   0  0  0  0  0  0  0  0  0  0  0  0
   -2.8977   -2.1210    0.1117 C   0  0  0  0  0  0  0  0  0  0  0  0
   -3.5856   -0.7811    0.0136 C   0  0  0  0  0  0  0  0  0  0  0  0
   -3.6101    1.6118   -0.3349 C   0  0  0  0  0  0  0  0  0  0  0  0
   -4.9699   -0.7371    0.2560 C   0  0  0  0  0  0  0  0  0  0  0  0
   -4.9867    1.6399   -0.1010 C   0  0  0  0  0  0  0  0  0  0  0  0
   -5.6662    0.4666    0.1993 C   0  0  0  0  0  0  0  0  0  0  0  0
    0.7807   -0.8876   -1.4737 H   0  0  0  0  0  0  0  0  0  0  0  0
   -0.7945   -0.8744    1.1319 H   0  0  0  0  0  0  0  0  0  0  0  0
   -1.3191    0.3015   -1.6588 H   0  0  0  0  0  0  0  0  0  0  0  0
    3.0015    0.1419   -1.4218 H   0  0  0  0  0  0  0  0  0  0  0  0
    1.0638    1.5680   -1.5285 H   0  0  0  0  0  0  0  0  0  0  0  0
    1.4090    2.4653   -0.0597 H   0  0  0  0  0  0  0  0  0  0  0  0
    1.4782   -2.9656   -0.6162 H   0  0  0  0  0  0  0  0  0  0  0  0
    1.4188   -2.4195    1.0640 H   0  0  0  0  0  0  0  0  0  0  0  0
   -0.7788    1.8878    0.8911 H   0  0  0  0  0  0  0  0  0  0  0  0
   -0.9789    2.5198   -0.7313 H   0  0  0  0  0  0  0  0  0  0  0  0
    3.5968   -1.7836    0.8530 H   0  0  0  0  0  0  0  0  0  0  0  0
    3.5990   -2.0500   -0.8985 H   0  0  0  0  0  0  0  0  0  0  0  0
   -0.9819   -3.0570   -0.1322 H   0  0  0  0  0  0  0  0  0  0  0  0
   -1.5105   -2.1481   -1.5462 H   0  0  0  0  0  0  0  0  0  0  0  0
    2.1004    1.3179    2.0253 H   0  0  0  0  0  0  0  0  0  0  0  0
    0.5276    0.5429    2.1352 H   0  0  0  0  0  0  0  0  0  0  0  0
    1.9890   -0.4304    2.2077 H   0  0  0  0  0  0  0  0  0  0  0  0
   -2.8651   -2.4049    1.1714 H   0  0  0  0  0  0  0  0  0  0  0  0
   -3.4883   -2.8811   -0.4141 H   0  0  0  0  0  0  0  0  0  0  0  0
   -3.1242    2.5503   -0.5841 H   0  0  0  0  0  0  0  0  0  0  0  0
   -5.5074   -1.6541    0.4889 H   0  0  0  0  0  0  0  0  0  0  0  0
   -5.5149    2.5879   -0.1616 H   0  0  0  0  0  0  0  0  0  0  0  0
    6.0240    2.2480    1.1020 H   0  0  0  0  0  0  0  0  0  0  0  0
   -7.3229    1.4086    0.3482 H   0  0  0  0  0  0  0  0  0  0  0  0
  1  2  1  0  0  0  0
  1  3  1  0  0  0  0
  1  4  2  0  0  0  0
  1  5  2  0  0  0  0
  2 11  1  0  0  0  0
  3 47  1  0  0  0  0
  6 24  1  0  0  0  0
  6 48  1  0  0  0  0
  7  8  1  0  0  0  0
  7 11  1  0  0  0  0
  7 12  1  0  0  0  0
  7 17  1  0  0  0  0
  8  9  1  0  0  0  0
  8 13  1  0  0  0  0
  8 25  1  0  0  0  0
  9 10  1  0  0  0  0
  9 16  1  0  0  0  0
  9 26  1  0  0  0  0
 10 14  1  0  0  0  0
 10 18  1  0  0  0  0
 10 27  1  0  0  0  0
 11 15  1  0  0  0  0
 11 28  1  0  0  0  0
 12 14  1  0  0  0  0
 12 29  1  0  0  0  0
 12 30  1  0  0  0  0
 13 15  1  0  0  0  0
 13 31  1  0  0  0  0
 13 32  1  0  0  0  0
 14 33  1  0  0  0  0
 14 34  1  0  0  0  0
 15 35  1  0  0  0  0
 15 36  1  0  0  0  0
 16 19  1  0  0  0  0
 16 37  1  0  0  0  0
 16 38  1  0  0  0  0
 17 39  1  0  0  0  0
 17 40  1  0  0  0  0
 17 41  1  0  0  0  0
 18 20  2  0  0  0  0
 18 21  1  0  0  0  0
 19 20  1  0  0  0  0
 19 42  1  0  0  0  0
 19 43  1  0  0  0  0
 20 22  1  0  0  0  0
 21 23  2  0  0  0  0
 21 44  1  0  0  0  0
 22 24  2  0  0  0  0
 22 45  1  0  0  0  0
 23 24  1  0  0  0  0
 23 46  1  0  0  0  0
M  END
> <PUBCHEM_COMPOUND_CID>
66429

> <PUBCHEM_CONFORMER_RMSD>
0.6

> <PUBCHEM_CONFORMER_DIVERSEORDER>
1
2

> <PUBCHEM_MMFF94_PARTIAL_CHARGES>
20
1 1.67
10 0.14
11 0.28
18 -0.14
19 0.14
2 -0.46
20 -0.14
21 -0.15
22 -0.15
23 -0.15
24 0.08
3 -0.68
4 -0.65
44 0.15
45 0.15
46 0.15
47 0.5
48 0.45
5 -0.65
6 -0.53

> <PUBCHEM_EFFECTIVE_ROTOR_COUNT>
3.4

> <PUBCHEM_PHARMACOPHORE_FEATURES>
9
1 3 acceptor
1 4 acceptor
1 5 acceptor
1 6 donor
4 1 3 4 5 anion
5 7 8 11 13 15 rings
6 18 20 21 22 23 24 rings
6 7 8 9 10 12 14 rings
6 9 10 16 18 19 20 rings

> <PUBCHEM_HEAVY_ATOM_COUNT>
24

> <PUBCHEM_ATOM_DEF_STEREO_COUNT>
5

> <PUBCHEM_ATOM_UDEF_STEREO_COUNT>
0

> <PUBCHEM_BOND_DEF_STEREO_COUNT>
0

> <PUBCHEM_BOND_UDEF_STEREO_COUNT>
0

> <PUBCHEM_ISOTOPIC_ATOM_COUNT>
0

> <PUBCHEM_COMPONENT_COUNT>
1

> <PUBCHEM_CACTVS_TAUTO_COUNT>
9

> <PUBCHEM_CONFORMER_ID>
0001037D00000001

> <PUBCHEM_MMFF94_ENERGY>
71.7606

> <PUBCHEM_FEATURE_SELFOVERLAP>
45.826

> <PUBCHEM_SHAPE_FINGERPRINT>
10 15 18261388979615853632
10366900 7 17632290155961911713
10411042 1 17761775465927112807
10906281 52 18262818322792772006
11089746 13 17489863856126809633
11578080 2 13684923526913934481
12011746 2 18273215292086836861
12236239 1 17676206879115171404
12390115 104 18129111030582401169
12403259 415 18271796909566516777
12516196 113 18202563981752592073
12596602 18 17167863058649774625
12788726 201 17560522776943098361
12838862 33 18337373995023696053
13140716 1 18265050421670689193
13402501 40 18412545388452549999
13533116 47 17632015234689108790
14251764 18 18410576197850996827
14341114 176 18410018698121286459
14617045 38 18411422799717670119
14790565 3 18409171012883903884
15048467 5 18272088309753264240
15196674 1 18410010992580939191
1601671 61 18411135840268150068
1813 80 16877948195865590551
18608769 82 18411420657273087043
19784866 170 18408603656104165175
20281389 69 18408321081652808512
20681677 155 18334573555464965395
21033648 29 17845359098286414538
21150785 3 12103843493137177168
21236236 1 18341891935462582447
21267235 1 18408329873435000167
21279426 13 18198345043888194156
21421861 104 17896308126550736890
21521721 280 18202565107492791008
23175994 123 17275110560730779816
23198884 109 15985107405724497435
23402539 116 18413383254593152814
23559900 14 18272362126793172169
293599 30 18413389838783383038
3004659 81 18336830797825348590
335352 9 18410856576835522492
34797466 226 17418380207612547228
34934 24 18410570682358978575
350125 39 18409731781052084501
3545911 37 18412263930624020937
4073 2 18113344136613347202
4325135 7 18040438793725208700
4340502 62 18411135818967458422
4463277 17 18410293614065874564
5104073 3 18335703784725262083
542803 24 17821447976057017668
5486654 2 18410579495984875740
59682541 35 18334864948380733137
59755656 215 18340775845297902422
6328613 192 18411985779562120537

> <PUBCHEM_SHAPE_MULTIPOLES>
468.41
14.44
2.06
0.89
3.54
0.59
-0.15
-4.23
-1.07
-0.53
0.14
0.68
-0.16
0.15

> <PUBCHEM_SHAPE_SELFOVERLAP>
1001.54

> <PUBCHEM_SHAPE_VOLUME>
262.2

> <PUBCHEM_COORDINATE_TYPE>
2
5
10

$$$$
