76317894
  -OEChem-12072210483D

 61 64  0     1  0  0  0  0  0999 V2000
    5.8912   -0.6918   -0.4415 S   0  0  0  0  0  0  0  0  0  0  0  0
    4.5285    0.1710   -0.1898 O   0  0  0  0  0  0  0  0  0  0  0  0
   -6.4807   -0.5338    0.2690 O   0  0  0  0  0  0  0  0  0  0  0  0
    7.0454    0.1875    0.3042 O   0  0  0  0  0  0  0  0  0  0  0  0
    5.7547   -1.9400    0.2857 O   0  0  0  0  0  0  0  0  0  0  0  0
    6.1877   -0.7043   -1.8618 O   0  0  0  0  0  0  0  0  0  0  0  0
   -0.2228   -0.0894    0.3257 C   0  0  1  0  0  0  0  0  0  0  0  0
   -1.1320    1.1807    0.2676 C   0  0  2  0  0  0  0  0  0  0  0  0
   -2.3991    0.8422   -0.5263 C   0  0  1  0  0  0  0  0  0  0  0  0
   -3.2146   -0.3085    0.1021 C   0  0  2  0  0  0  0  0  0  0  0  0
    1.1267    0.1861    1.0904 C   0  0  2  0  0  0  0  0  0  0  0  0
    1.8502    1.4155    0.4448 C   0  0  2  0  0  0  0  0  0  0  0  0
   -1.0031   -1.3326    0.8326 C   0  0  0  0  0  0  0  0  0  0  0  0
   -2.3342   -1.5649    0.0941 C   0  0  0  0  0  0  0  0  0  0  0  0
   -0.3873    2.3715   -0.3491 C   0  0  0  0  0  0  0  0  0  0  0  0
   -4.4024   -0.3397   -0.8848 C   0  0  2  0  0  0  0  0  0  0  0  0
   -3.4420    1.9307   -0.7566 C   0  0  0  0  0  0  0  0  0  0  0  0
    0.9364    2.6499    0.3566 C   0  0  0  0  0  0  0  0  0  0  0  0
    2.0930   -1.0333    1.0502 C   0  0  0  0  0  0  0  0  0  0  0  0
   -4.7054    1.1489   -1.1587 C   0  0  0  0  0  0  0  0  0  0  0  0
    2.4477    1.0963   -0.9471 C   0  0  0  0  0  0  0  0  0  0  0  0
   -3.7028   -0.0176    1.5458 C   0  0  0  0  0  0  0  0  0  0  0  0
    0.8655    0.4756    2.5917 C   0  0  0  0  0  0  0  0  0  0  0  0
    2.6490   -1.3422   -0.3384 C   0  0  0  0  0  0  0  0  0  0  0  0
    3.3539   -0.1313   -0.9400 C   0  0  2  0  0  0  0  0  0  0  0  0
   -5.6073   -1.0851   -0.3990 C   0  0  0  0  0  0  0  0  0  0  0  0
   -5.6964   -2.5414   -0.7676 C   0  0  0  0  0  0  0  0  0  0  0  0
    0.0347   -0.3236   -0.7163 H   0  0  0  0  0  0  0  0  0  0  0  0
   -1.4209    1.4731    1.2822 H   0  0  0  0  0  0  0  0  0  0  0  0
   -2.0658    0.5241   -1.5288 H   0  0  0  0  0  0  0  0  0  0  0  0
    2.6951    1.6926    1.0918 H   0  0  0  0  0  0  0  0  0  0  0  0
   -1.1992   -1.2497    1.9059 H   0  0  0  0  0  0  0  0  0  0  0  0
   -0.3961   -2.2343    0.6982 H   0  0  0  0  0  0  0  0  0  0  0  0
   -2.1143   -1.8659   -0.9383 H   0  0  0  0  0  0  0  0  0  0  0  0
   -2.8557   -2.4084    0.5597 H   0  0  0  0  0  0  0  0  0  0  0  0
   -1.0098    3.2723   -0.2876 H   0  0  0  0  0  0  0  0  0  0  0  0
   -0.2106    2.1940   -1.4164 H   0  0  0  0  0  0  0  0  0  0  0  0
   -4.0916   -0.7906   -1.8376 H   0  0  0  0  0  0  0  0  0  0  0  0
   -3.1412    2.6303   -1.5430 H   0  0  0  0  0  0  0  0  0  0  0  0
   -3.6232    2.5128    0.1537 H   0  0  0  0  0  0  0  0  0  0  0  0
    1.4570    3.4643   -0.1623 H   0  0  0  0  0  0  0  0  0  0  0  0
    0.7298    3.0248    1.3662 H   0  0  0  0  0  0  0  0  0  0  0  0
    1.6104   -1.9300    1.4538 H   0  0  0  0  0  0  0  0  0  0  0  0
    2.9428   -0.8400    1.7199 H   0  0  0  0  0  0  0  0  0  0  0  0
   -5.5708    1.5372   -0.6118 H   0  0  0  0  0  0  0  0  0  0  0  0
   -4.9179    1.2924   -2.2249 H   0  0  0  0  0  0  0  0  0  0  0  0
    1.6532    0.9402   -1.6845 H   0  0  0  0  0  0  0  0  0  0  0  0
    3.0268    1.9657   -1.2845 H   0  0  0  0  0  0  0  0  0  0  0  0
   -4.3814    0.8397    1.5955 H   0  0  0  0  0  0  0  0  0  0  0  0
   -2.8811    0.1904    2.2360 H   0  0  0  0  0  0  0  0  0  0  0  0
   -4.2395   -0.8818    1.9542 H   0  0  0  0  0  0  0  0  0  0  0  0
    0.4766   -0.4073    3.1095 H   0  0  0  0  0  0  0  0  0  0  0  0
    0.1563    1.2907    2.7534 H   0  0  0  0  0  0  0  0  0  0  0  0
    1.7952    0.7569    3.1008 H   0  0  0  0  0  0  0  0  0  0  0  0
    3.3266   -2.1974   -0.2630 H   0  0  0  0  0  0  0  0  0  0  0  0
    1.8347   -1.6578   -1.0005 H   0  0  0  0  0  0  0  0  0  0  0  0
    3.6377   -0.3509   -1.9759 H   0  0  0  0  0  0  0  0  0  0  0  0
   -4.8927   -3.1021   -0.2880 H   0  0  0  0  0  0  0  0  0  0  0  0
   -5.6403   -2.6526   -1.8533 H   0  0  0  0  0  0  0  0  0  0  0  0
   -6.6549   -2.9446   -0.4281 H   0  0  0  0  0  0  0  0  0  0  0  0
    7.9567   -0.1858    0.2561 H   0  0  0  0  0  0  0  0  0  0  0  0
  1  2  1  0  0  0  0
  1  4  1  0  0  0  0
  1  5  2  0  0  0  0
  1  6  2  0  0  0  0
  2 25  1  0  0  0  0
  3 26  2  0  0  0  0
  4 61  1  0  0  0  0
  7  8  1  0  0  0  0
  7 11  1  0  0  0  0
  7 13  1  0  0  0  0
  7 28  1  0  0  0  0
  8  9  1  0  0  0  0
  8 15  1  0  0  0  0
  8 29  1  0  0  0  0
  9 10  1  0  0  0  0
  9 17  1  0  0  0  0
  9 30  1  0  0  0  0
 10 14  1  0  0  0  0
 10 16  1  0  0  0  0
 10 22  1  0  0  0  0
 11 12  1  0  0  0  0
 11 19  1  0  0  0  0
 11 23  1  0  0  0  0
 12 18  1  0  0  0  0
 12 21  1  0  0  0  0
 12 31  1  0  0  0  0
 13 14  1  0  0  0  0
 13 32  1  0  0  0  0
 13 33  1  0  0  0  0
 14 34  1  0  0  0  0
 14 35  1  0  0  0  0
 15 18  1  0  0  0  0
 15 36  1  0  0  0  0
 15 37  1  0  0  0  0
 16 20  1  0  0  0  0
 16 26  1  0  0  0  0
 16 38  1  0  0  0  0
 17 20  1  0  0  0  0
 17 39  1  0  0  0  0
 17 40  1  0  0  0  0
 18 41  1  0  0  0  0
 18 42  1  0  0  0  0
 19 24  1  0  0  0  0
 19 43  1  0  0  0  0
 19 44  1  0  0  0  0
 20 45  1  0  0  0  0
 20 46  1  0  0  0  0
 21 25  1  0  0  0  0
 21 47  1  0  0  0  0
 21 48  1  0  0  0  0
 22 49  1  0  0  0  0
 22 50  1  0  0  0  0
 22 51  1  0  0  0  0
 23 52  1  0  0  0  0
 23 53  1  0  0  0  0
 23 54  1  0  0  0  0
 24 25  1  0  0  0  0
 24 55  1  0  0  0  0
 24 56  1  0  0  0  0
 25 57  1  0  0  0  0
 26 27  1  0  0  0  0
 27 58  1  0  0  0  0
 27 59  1  0  0  0  0
 27 60  1  0  0  0  0
M  END
> <PUBCHEM_COMPOUND_CID>
76317894

> <PUBCHEM_CONFORMER_RMSD>
0.8

> <PUBCHEM_CONFORMER_DIVERSEORDER>
1
21
16
8
18
17
4
19
6
10
20
7
14
5
11
15
3
9
13
2
12

> <PUBCHEM_MMFF94_PARTIAL_CHARGES>
11
1 1.67
16 0.06
2 -0.46
25 0.28
26 0.45
27 0.06
3 -0.57
4 -0.68
5 -0.65
6 -0.65
61 0.5

> <PUBCHEM_EFFECTIVE_ROTOR_COUNT>
5.2

> <PUBCHEM_PHARMACOPHORE_FEATURES>
9
1 3 acceptor
1 4 acceptor
1 5 acceptor
1 6 acceptor
4 1 4 5 6 anion
5 9 10 16 17 20 rings
6 11 12 19 21 24 25 rings
6 7 8 11 12 15 18 rings
6 7 8 9 10 13 14 rings

> <PUBCHEM_HEAVY_ATOM_COUNT>
27

> <PUBCHEM_ATOM_DEF_STEREO_COUNT>
8

> <PUBCHEM_ATOM_UDEF_STEREO_COUNT>
0

> <PUBCHEM_BOND_DEF_STEREO_COUNT>
0

> <PUBCHEM_BOND_UDEF_STEREO_COUNT>
0

> <PUBCHEM_ISOTOPIC_ATOM_COUNT>
0

> <PUBCHEM_COMPONENT_COUNT>
1

> <PUBCHEM_CACTVS_TAUTO_COUNT>
3

> <PUBCHEM_CONFORMER_ID>
048C84C600000001

> <PUBCHEM_MMFF94_ENERGY>
82.3302

> <PUBCHEM_FEATURE_SELFOVERLAP>
45.859

> <PUBCHEM_SHAPE_FINGERPRINT>
10319926 262 9655282731464863758
10366900 7 17458057192854959385
10670039 82 17095515184867679549
11963148 33 18341604911188464734
12011746 2 18113051654114848215
12166972 35 18113621200705825396
12236239 1 17458340806297946386
12516196 113 18272932726378447488
12788726 201 18265329504440501584
13224815 77 17822003225456051393
13288520 33 18342458145206016821
13544653 18 17131836417809822908
13583140 156 12035452740302853717
13685833 64 17918277566694439319
13690498 29 18260542325813674301
13782708 43 17989200473243575679
13862211 1 18410011018635553538
14251751 18 17846214513922124039
14790565 3 17331966015167690857
15142383 8 16486981665745015305
15183329 4 16370725907720518478
15788980 27 18335140877905882420
17349148 13 17749686086718395584
17492 89 17981040040457144175
1813 80 15267347323219558496
18608769 82 17822581611585511515
18681886 176 18335414699430401632
19784866 170 9655579612410104233
19784866 240 17918000485653700307
200 152 17704072876324598096
20567600 247 18342171176360142198
20775438 99 17404838828611281007
20871999 31 18261109651874623841
21267235 1 18408326605402477923
21521721 280 17560796680430295386
221357 26 18335416881231551085
22224240 67 8646767772661881933
22393880 68 18187351135082053469
23198884 109 16370727023947765975
23402539 116 18335700507928874324
23522609 53 18124065457216123201
23559900 14 18340757243567754657
23622692 88 13326852236184088296
2838139 119 14995999921936030606
3004659 81 18186802478874459356
3009799 131 18334011705619160020
335352 9 18409724050896708261
34797466 226 18060142055370181436
3737641 26 16414649133486017886
484989 97 17678188294033147099
5283173 99 18262234413932170596
59682541 35 17846768634356227530
6669772 16 18193553592091654072
6823239 73 18339911701566051785
7495541 125 18059294365473529121
9709674 26 18191862543054608049

> <PUBCHEM_SHAPE_MULTIPOLES>
530.15
14.65
2.24
1.43
7.9
0.46
0.54
-7.47
-5.01
-1.09
-0.27
0.4
0.05
0.3

> <PUBCHEM_SHAPE_SELFOVERLAP>
1106.366

> <PUBCHEM_SHAPE_VOLUME>
304.4

> <PUBCHEM_COORDINATE_TYPE>
2
5
10

$$$$
